[root]
type=Root
children=system
eventq_index=0
full_system=false
sim_quantum=0
time_sync_enable=false
time_sync_period=100000000
time_sync_spin_threshold=100000

[system]
type=System
children=clk_domain cpu00 cpu01 cpu02 cpu03 cpu04 cpu05 cpu06 cpu07 cpu08 cpu09 cpu10 cpu11 cpu12 cpu13 cpu14 cpu15 dvfs_handler mem_ctrls00 mem_ctrls01 mem_ctrls02 mem_ctrls03 mem_ctrls04 mem_ctrls05 mem_ctrls06 mem_ctrls07 mem_ctrls08 mem_ctrls09 mem_ctrls10 mem_ctrls11 mem_ctrls12 mem_ctrls13 mem_ctrls14 mem_ctrls15 ruby sys_port_proxy voltage_domain
boot_osflags=a
cache_line_size=64
clk_domain=system.clk_domain
default_p_state=UNDEFINED
eventq_index=0
exit_on_work_items=false
init_param=0
kernel=
kernel_addr_check=true
kernel_extras=
load_addr_mask=18446744073709551615
load_offset=0
mem_mode=timing
mem_ranges=0:536870911:0:0:0:0
memories=system.mem_ctrls00 system.mem_ctrls01 system.mem_ctrls02 system.mem_ctrls03 system.mem_ctrls04 system.mem_ctrls05 system.mem_ctrls06 system.mem_ctrls07 system.mem_ctrls08 system.mem_ctrls09 system.mem_ctrls10 system.mem_ctrls11 system.mem_ctrls12 system.mem_ctrls13 system.mem_ctrls14 system.mem_ctrls15
mmap_using_noreserve=false
multi_thread=false
num_work_ids=16
p_state_clk_gate_bins=20
p_state_clk_gate_max=1000000000
p_state_clk_gate_min=1
power_model=
readfile=
symbolfile=
thermal_components=
thermal_model=Null
work_begin_ckpt_count=0
work_begin_cpu_id_exit=-1
work_begin_exit_count=0
work_cpus_ckpt_count=0
work_end_ckpt_count=0
work_end_exit_count=0
work_item_id=-1
system_port=system.sys_port_proxy.slave[0]

[system.clk_domain]
type=SrcClockDomain
clock=1
domain_id=-1
eventq_index=0
init_perf_level=0
voltage_domain=system.voltage_domain

[system.cpu00]
type=GarnetSyntheticTraffic
block_offset=6
burst_interval=100
burst_length=10
clk_domain=system.clk_domain
default_p_state=UNDEFINED
eventq_index=0
inj_rate=0.1
inj_vnet=-1
memory_size=65536
num_dest=16
num_packages=8
num_packets_max=-1
p_state_clk_gate_bins=20
p_state_clk_gate_max=1000000000
p_state_clk_gate_min=1
power_model=
precision=3
response_limit=5000000
sim_cycles=1000
single_dest=-1
single_sender=-1
system=system
traffic_type=training
test=system.ruby.l1_cntrl0.sequencer.slave[0]

[system.cpu01]
type=GarnetSyntheticTraffic
block_offset=6
burst_interval=100
burst_length=10
clk_domain=system.clk_domain
default_p_state=UNDEFINED
eventq_index=0
inj_rate=0.1
inj_vnet=-1
memory_size=65536
num_dest=16
num_packages=8
num_packets_max=-1
p_state_clk_gate_bins=20
p_state_clk_gate_max=1000000000
p_state_clk_gate_min=1
power_model=
precision=3
response_limit=5000000
sim_cycles=1000
single_dest=-1
single_sender=-1
system=system
traffic_type=training
test=system.ruby.l1_cntrl1.sequencer.slave[0]

[system.cpu02]
type=GarnetSyntheticTraffic
block_offset=6
burst_interval=100
burst_length=10
clk_domain=system.clk_domain
default_p_state=UNDEFINED
eventq_index=0
inj_rate=0.1
inj_vnet=-1
memory_size=65536
num_dest=16
num_packages=8
num_packets_max=-1
p_state_clk_gate_bins=20
p_state_clk_gate_max=1000000000
p_state_clk_gate_min=1
power_model=
precision=3
response_limit=5000000
sim_cycles=1000
single_dest=-1
single_sender=-1
system=system
traffic_type=training
test=system.ruby.l1_cntrl2.sequencer.slave[0]

[system.cpu03]
type=GarnetSyntheticTraffic
block_offset=6
burst_interval=100
burst_length=10
clk_domain=system.clk_domain
default_p_state=UNDEFINED
eventq_index=0
inj_rate=0.1
inj_vnet=-1
memory_size=65536
num_dest=16
num_packages=8
num_packets_max=-1
p_state_clk_gate_bins=20
p_state_clk_gate_max=1000000000
p_state_clk_gate_min=1
power_model=
precision=3
response_limit=5000000
sim_cycles=1000
single_dest=-1
single_sender=-1
system=system
traffic_type=training
test=system.ruby.l1_cntrl3.sequencer.slave[0]

[system.cpu04]
type=GarnetSyntheticTraffic
block_offset=6
burst_interval=100
burst_length=10
clk_domain=system.clk_domain
default_p_state=UNDEFINED
eventq_index=0
inj_rate=0.1
inj_vnet=-1
memory_size=65536
num_dest=16
num_packages=8
num_packets_max=-1
p_state_clk_gate_bins=20
p_state_clk_gate_max=1000000000
p_state_clk_gate_min=1
power_model=
precision=3
response_limit=5000000
sim_cycles=1000
single_dest=-1
single_sender=-1
system=system
traffic_type=training
test=system.ruby.l1_cntrl4.sequencer.slave[0]

[system.cpu05]
type=GarnetSyntheticTraffic
block_offset=6
burst_interval=100
burst_length=10
clk_domain=system.clk_domain
default_p_state=UNDEFINED
eventq_index=0
inj_rate=0.1
inj_vnet=-1
memory_size=65536
num_dest=16
num_packages=8
num_packets_max=-1
p_state_clk_gate_bins=20
p_state_clk_gate_max=1000000000
p_state_clk_gate_min=1
power_model=
precision=3
response_limit=5000000
sim_cycles=1000
single_dest=-1
single_sender=-1
system=system
traffic_type=training
test=system.ruby.l1_cntrl5.sequencer.slave[0]

[system.cpu06]
type=GarnetSyntheticTraffic
block_offset=6
burst_interval=100
burst_length=10
clk_domain=system.clk_domain
default_p_state=UNDEFINED
eventq_index=0
inj_rate=0.1
inj_vnet=-1
memory_size=65536
num_dest=16
num_packages=8
num_packets_max=-1
p_state_clk_gate_bins=20
p_state_clk_gate_max=1000000000
p_state_clk_gate_min=1
power_model=
precision=3
response_limit=5000000
sim_cycles=1000
single_dest=-1
single_sender=-1
system=system
traffic_type=training
test=system.ruby.l1_cntrl6.sequencer.slave[0]

[system.cpu07]
type=GarnetSyntheticTraffic
block_offset=6
burst_interval=100
burst_length=10
clk_domain=system.clk_domain
default_p_state=UNDEFINED
eventq_index=0
inj_rate=0.1
inj_vnet=-1
memory_size=65536
num_dest=16
num_packages=8
num_packets_max=-1
p_state_clk_gate_bins=20
p_state_clk_gate_max=1000000000
p_state_clk_gate_min=1
power_model=
precision=3
response_limit=5000000
sim_cycles=1000
single_dest=-1
single_sender=-1
system=system
traffic_type=training
test=system.ruby.l1_cntrl7.sequencer.slave[0]

[system.cpu08]
type=GarnetSyntheticTraffic
block_offset=6
burst_interval=100
burst_length=10
clk_domain=system.clk_domain
default_p_state=UNDEFINED
eventq_index=0
inj_rate=0.1
inj_vnet=-1
memory_size=65536
num_dest=16
num_packages=8
num_packets_max=-1
p_state_clk_gate_bins=20
p_state_clk_gate_max=1000000000
p_state_clk_gate_min=1
power_model=
precision=3
response_limit=5000000
sim_cycles=1000
single_dest=-1
single_sender=-1
system=system
traffic_type=training
test=system.ruby.l1_cntrl8.sequencer.slave[0]

[system.cpu09]
type=GarnetSyntheticTraffic
block_offset=6
burst_interval=100
burst_length=10
clk_domain=system.clk_domain
default_p_state=UNDEFINED
eventq_index=0
inj_rate=0.1
inj_vnet=-1
memory_size=65536
num_dest=16
num_packages=8
num_packets_max=-1
p_state_clk_gate_bins=20
p_state_clk_gate_max=1000000000
p_state_clk_gate_min=1
power_model=
precision=3
response_limit=5000000
sim_cycles=1000
single_dest=-1
single_sender=-1
system=system
traffic_type=training
test=system.ruby.l1_cntrl9.sequencer.slave[0]

[system.cpu10]
type=GarnetSyntheticTraffic
block_offset=6
burst_interval=100
burst_length=10
clk_domain=system.clk_domain
default_p_state=UNDEFINED
eventq_index=0
inj_rate=0.1
inj_vnet=-1
memory_size=65536
num_dest=16
num_packages=8
num_packets_max=-1
p_state_clk_gate_bins=20
p_state_clk_gate_max=1000000000
p_state_clk_gate_min=1
power_model=
precision=3
response_limit=5000000
sim_cycles=1000
single_dest=-1
single_sender=-1
system=system
traffic_type=training
test=system.ruby.l1_cntrl10.sequencer.slave[0]

[system.cpu11]
type=GarnetSyntheticTraffic
block_offset=6
burst_interval=100
burst_length=10
clk_domain=system.clk_domain
default_p_state=UNDEFINED
eventq_index=0
inj_rate=0.1
inj_vnet=-1
memory_size=65536
num_dest=16
num_packages=8
num_packets_max=-1
p_state_clk_gate_bins=20
p_state_clk_gate_max=1000000000
p_state_clk_gate_min=1
power_model=
precision=3
response_limit=5000000
sim_cycles=1000
single_dest=-1
single_sender=-1
system=system
traffic_type=training
test=system.ruby.l1_cntrl11.sequencer.slave[0]

[system.cpu12]
type=GarnetSyntheticTraffic
block_offset=6
burst_interval=100
burst_length=10
clk_domain=system.clk_domain
default_p_state=UNDEFINED
eventq_index=0
inj_rate=0.1
inj_vnet=-1
memory_size=65536
num_dest=16
num_packages=8
num_packets_max=-1
p_state_clk_gate_bins=20
p_state_clk_gate_max=1000000000
p_state_clk_gate_min=1
power_model=
precision=3
response_limit=5000000
sim_cycles=1000
single_dest=-1
single_sender=-1
system=system
traffic_type=training
test=system.ruby.l1_cntrl12.sequencer.slave[0]

[system.cpu13]
type=GarnetSyntheticTraffic
block_offset=6
burst_interval=100
burst_length=10
clk_domain=system.clk_domain
default_p_state=UNDEFINED
eventq_index=0
inj_rate=0.1
inj_vnet=-1
memory_size=65536
num_dest=16
num_packages=8
num_packets_max=-1
p_state_clk_gate_bins=20
p_state_clk_gate_max=1000000000
p_state_clk_gate_min=1
power_model=
precision=3
response_limit=5000000
sim_cycles=1000
single_dest=-1
single_sender=-1
system=system
traffic_type=training
test=system.ruby.l1_cntrl13.sequencer.slave[0]

[system.cpu14]
type=GarnetSyntheticTraffic
block_offset=6
burst_interval=100
burst_length=10
clk_domain=system.clk_domain
default_p_state=UNDEFINED
eventq_index=0
inj_rate=0.1
inj_vnet=-1
memory_size=65536
num_dest=16
num_packages=8
num_packets_max=-1
p_state_clk_gate_bins=20
p_state_clk_gate_max=1000000000
p_state_clk_gate_min=1
power_model=
precision=3
response_limit=5000000
sim_cycles=1000
single_dest=-1
single_sender=-1
system=system
traffic_type=training
test=system.ruby.l1_cntrl14.sequencer.slave[0]

[system.cpu15]
type=GarnetSyntheticTraffic
block_offset=6
burst_interval=100
burst_length=10
clk_domain=system.clk_domain
default_p_state=UNDEFINED
eventq_index=0
inj_rate=0.1
inj_vnet=-1
memory_size=65536
num_dest=16
num_packages=8
num_packets_max=-1
p_state_clk_gate_bins=20
p_state_clk_gate_max=1000000000
p_state_clk_gate_min=1
power_model=
precision=3
response_limit=5000000
sim_cycles=1000
single_dest=-1
single_sender=-1
system=system
traffic_type=training
test=system.ruby.l1_cntrl15.sequencer.slave[0]

[system.dvfs_handler]
type=DVFSHandler
domains=
enable=false
eventq_index=0
sys_clk_domain=system.clk_domain
transition_latency=100000

[system.mem_ctrls00]
type=DRAMCtrl
IDD0=0.055
IDD02=0.0
IDD2N=0.032
IDD2N2=0.0
IDD2P0=0.0
IDD2P02=0.0
IDD2P1=0.032
IDD2P12=0.0
IDD3N=0.038
IDD3N2=0.0
IDD3P0=0.0
IDD3P02=0.0
IDD3P1=0.038
IDD3P12=0.0
IDD4R=0.157
IDD4R2=0.0
IDD4W=0.125
IDD4W2=0.0
IDD5=0.235
IDD52=0.0
IDD6=0.02
IDD62=0.0
VDD=1.5
VDD2=0.0
activation_limit=4
addr_mapping=RoRaBaCoCh
bank_groups_per_rank=0
banks_per_rank=8
burst_length=8
channels=16
clk_domain=system.clk_domain
conf_table_reported=true
default_p_state=UNDEFINED
device_bus_width=8
device_rowbuffer_size=1024
device_size=536870912
devices_per_rank=8
dll=true
eventq_index=0
in_addr_map=true
kvm_map=true
max_accesses_per_row=16
mem_sched_policy=frfcfs
min_writes_per_switch=16
null=false
p_state_clk_gate_bins=20
p_state_clk_gate_max=1000000000
p_state_clk_gate_min=1
page_policy=open_adaptive
power_model=
qos_masters=               
qos_policy=Null
qos_priorities=1
qos_priority_escalation=false
qos_q_policy=fifo
qos_syncro_scheduler=false
qos_turnaround_policy=Null
range=0:536870911:9:23:4:0
ranks_per_channel=2
read_buffer_size=32
static_backend_latency=10
static_frontend_latency=10
tBURST=5
tCCD_L=0
tCCD_L_WR=0
tCK=1
tCL=14
tCS=3
tRAS=35
tRCD=14
tREFI=7800
tRFC=260
tRP=14
tRRD=6
tRRD_L=0
tRTP=8
tRTW=3
tWR=15
tWTR=8
tXAW=30
tXP=6
tXPDLL=0
tXS=270
tXSDLL=0
write_buffer_size=64
write_high_thresh_perc=85
write_low_thresh_perc=50
port=system.ruby.dir_cntrl0.memory

[system.mem_ctrls01]
type=DRAMCtrl
IDD0=0.055
IDD02=0.0
IDD2N=0.032
IDD2N2=0.0
IDD2P0=0.0
IDD2P02=0.0
IDD2P1=0.032
IDD2P12=0.0
IDD3N=0.038
IDD3N2=0.0
IDD3P0=0.0
IDD3P02=0.0
IDD3P1=0.038
IDD3P12=0.0
IDD4R=0.157
IDD4R2=0.0
IDD4W=0.125
IDD4W2=0.0
IDD5=0.235
IDD52=0.0
IDD6=0.02
IDD62=0.0
VDD=1.5
VDD2=0.0
activation_limit=4
addr_mapping=RoRaBaCoCh
bank_groups_per_rank=0
banks_per_rank=8
burst_length=8
channels=16
clk_domain=system.clk_domain
conf_table_reported=true
default_p_state=UNDEFINED
device_bus_width=8
device_rowbuffer_size=1024
device_size=536870912
devices_per_rank=8
dll=true
eventq_index=0
in_addr_map=true
kvm_map=true
max_accesses_per_row=16
mem_sched_policy=frfcfs
min_writes_per_switch=16
null=false
p_state_clk_gate_bins=20
p_state_clk_gate_max=1000000000
p_state_clk_gate_min=1
page_policy=open_adaptive
power_model=
qos_masters=               
qos_policy=Null
qos_priorities=1
qos_priority_escalation=false
qos_q_policy=fifo
qos_syncro_scheduler=false
qos_turnaround_policy=Null
range=0:536870911:9:23:4:1
ranks_per_channel=2
read_buffer_size=32
static_backend_latency=10
static_frontend_latency=10
tBURST=5
tCCD_L=0
tCCD_L_WR=0
tCK=1
tCL=14
tCS=3
tRAS=35
tRCD=14
tREFI=7800
tRFC=260
tRP=14
tRRD=6
tRRD_L=0
tRTP=8
tRTW=3
tWR=15
tWTR=8
tXAW=30
tXP=6
tXPDLL=0
tXS=270
tXSDLL=0
write_buffer_size=64
write_high_thresh_perc=85
write_low_thresh_perc=50
port=system.ruby.dir_cntrl1.memory

[system.mem_ctrls02]
type=DRAMCtrl
IDD0=0.055
IDD02=0.0
IDD2N=0.032
IDD2N2=0.0
IDD2P0=0.0
IDD2P02=0.0
IDD2P1=0.032
IDD2P12=0.0
IDD3N=0.038
IDD3N2=0.0
IDD3P0=0.0
IDD3P02=0.0
IDD3P1=0.038
IDD3P12=0.0
IDD4R=0.157
IDD4R2=0.0
IDD4W=0.125
IDD4W2=0.0
IDD5=0.235
IDD52=0.0
IDD6=0.02
IDD62=0.0
VDD=1.5
VDD2=0.0
activation_limit=4
addr_mapping=RoRaBaCoCh
bank_groups_per_rank=0
banks_per_rank=8
burst_length=8
channels=16
clk_domain=system.clk_domain
conf_table_reported=true
default_p_state=UNDEFINED
device_bus_width=8
device_rowbuffer_size=1024
device_size=536870912
devices_per_rank=8
dll=true
eventq_index=0
in_addr_map=true
kvm_map=true
max_accesses_per_row=16
mem_sched_policy=frfcfs
min_writes_per_switch=16
null=false
p_state_clk_gate_bins=20
p_state_clk_gate_max=1000000000
p_state_clk_gate_min=1
page_policy=open_adaptive
power_model=
qos_masters=               
qos_policy=Null
qos_priorities=1
qos_priority_escalation=false
qos_q_policy=fifo
qos_syncro_scheduler=false
qos_turnaround_policy=Null
range=0:536870911:9:23:4:2
ranks_per_channel=2
read_buffer_size=32
static_backend_latency=10
static_frontend_latency=10
tBURST=5
tCCD_L=0
tCCD_L_WR=0
tCK=1
tCL=14
tCS=3
tRAS=35
tRCD=14
tREFI=7800
tRFC=260
tRP=14
tRRD=6
tRRD_L=0
tRTP=8
tRTW=3
tWR=15
tWTR=8
tXAW=30
tXP=6
tXPDLL=0
tXS=270
tXSDLL=0
write_buffer_size=64
write_high_thresh_perc=85
write_low_thresh_perc=50
port=system.ruby.dir_cntrl2.memory

[system.mem_ctrls03]
type=DRAMCtrl
IDD0=0.055
IDD02=0.0
IDD2N=0.032
IDD2N2=0.0
IDD2P0=0.0
IDD2P02=0.0
IDD2P1=0.032
IDD2P12=0.0
IDD3N=0.038
IDD3N2=0.0
IDD3P0=0.0
IDD3P02=0.0
IDD3P1=0.038
IDD3P12=0.0
IDD4R=0.157
IDD4R2=0.0
IDD4W=0.125
IDD4W2=0.0
IDD5=0.235
IDD52=0.0
IDD6=0.02
IDD62=0.0
VDD=1.5
VDD2=0.0
activation_limit=4
addr_mapping=RoRaBaCoCh
bank_groups_per_rank=0
banks_per_rank=8
burst_length=8
channels=16
clk_domain=system.clk_domain
conf_table_reported=true
default_p_state=UNDEFINED
device_bus_width=8
device_rowbuffer_size=1024
device_size=536870912
devices_per_rank=8
dll=true
eventq_index=0
in_addr_map=true
kvm_map=true
max_accesses_per_row=16
mem_sched_policy=frfcfs
min_writes_per_switch=16
null=false
p_state_clk_gate_bins=20
p_state_clk_gate_max=1000000000
p_state_clk_gate_min=1
page_policy=open_adaptive
power_model=
qos_masters=               
qos_policy=Null
qos_priorities=1
qos_priority_escalation=false
qos_q_policy=fifo
qos_syncro_scheduler=false
qos_turnaround_policy=Null
range=0:536870911:9:23:4:3
ranks_per_channel=2
read_buffer_size=32
static_backend_latency=10
static_frontend_latency=10
tBURST=5
tCCD_L=0
tCCD_L_WR=0
tCK=1
tCL=14
tCS=3
tRAS=35
tRCD=14
tREFI=7800
tRFC=260
tRP=14
tRRD=6
tRRD_L=0
tRTP=8
tRTW=3
tWR=15
tWTR=8
tXAW=30
tXP=6
tXPDLL=0
tXS=270
tXSDLL=0
write_buffer_size=64
write_high_thresh_perc=85
write_low_thresh_perc=50
port=system.ruby.dir_cntrl3.memory

[system.mem_ctrls04]
type=DRAMCtrl
IDD0=0.055
IDD02=0.0
IDD2N=0.032
IDD2N2=0.0
IDD2P0=0.0
IDD2P02=0.0
IDD2P1=0.032
IDD2P12=0.0
IDD3N=0.038
IDD3N2=0.0
IDD3P0=0.0
IDD3P02=0.0
IDD3P1=0.038
IDD3P12=0.0
IDD4R=0.157
IDD4R2=0.0
IDD4W=0.125
IDD4W2=0.0
IDD5=0.235
IDD52=0.0
IDD6=0.02
IDD62=0.0
VDD=1.5
VDD2=0.0
activation_limit=4
addr_mapping=RoRaBaCoCh
bank_groups_per_rank=0
banks_per_rank=8
burst_length=8
channels=16
clk_domain=system.clk_domain
conf_table_reported=true
default_p_state=UNDEFINED
device_bus_width=8
device_rowbuffer_size=1024
device_size=536870912
devices_per_rank=8
dll=true
eventq_index=0
in_addr_map=true
kvm_map=true
max_accesses_per_row=16
mem_sched_policy=frfcfs
min_writes_per_switch=16
null=false
p_state_clk_gate_bins=20
p_state_clk_gate_max=1000000000
p_state_clk_gate_min=1
page_policy=open_adaptive
power_model=
qos_masters=               
qos_policy=Null
qos_priorities=1
qos_priority_escalation=false
qos_q_policy=fifo
qos_syncro_scheduler=false
qos_turnaround_policy=Null
range=0:536870911:9:23:4:4
ranks_per_channel=2
read_buffer_size=32
static_backend_latency=10
static_frontend_latency=10
tBURST=5
tCCD_L=0
tCCD_L_WR=0
tCK=1
tCL=14
tCS=3
tRAS=35
tRCD=14
tREFI=7800
tRFC=260
tRP=14
tRRD=6
tRRD_L=0
tRTP=8
tRTW=3
tWR=15
tWTR=8
tXAW=30
tXP=6
tXPDLL=0
tXS=270
tXSDLL=0
write_buffer_size=64
write_high_thresh_perc=85
write_low_thresh_perc=50
port=system.ruby.dir_cntrl4.memory

[system.mem_ctrls05]
type=DRAMCtrl
IDD0=0.055
IDD02=0.0
IDD2N=0.032
IDD2N2=0.0
IDD2P0=0.0
IDD2P02=0.0
IDD2P1=0.032
IDD2P12=0.0
IDD3N=0.038
IDD3N2=0.0
IDD3P0=0.0
IDD3P02=0.0
IDD3P1=0.038
IDD3P12=0.0
IDD4R=0.157
IDD4R2=0.0
IDD4W=0.125
IDD4W2=0.0
IDD5=0.235
IDD52=0.0
IDD6=0.02
IDD62=0.0
VDD=1.5
VDD2=0.0
activation_limit=4
addr_mapping=RoRaBaCoCh
bank_groups_per_rank=0
banks_per_rank=8
burst_length=8
channels=16
clk_domain=system.clk_domain
conf_table_reported=true
default_p_state=UNDEFINED
device_bus_width=8
device_rowbuffer_size=1024
device_size=536870912
devices_per_rank=8
dll=true
eventq_index=0
in_addr_map=true
kvm_map=true
max_accesses_per_row=16
mem_sched_policy=frfcfs
min_writes_per_switch=16
null=false
p_state_clk_gate_bins=20
p_state_clk_gate_max=1000000000
p_state_clk_gate_min=1
page_policy=open_adaptive
power_model=
qos_masters=               
qos_policy=Null
qos_priorities=1
qos_priority_escalation=false
qos_q_policy=fifo
qos_syncro_scheduler=false
qos_turnaround_policy=Null
range=0:536870911:9:23:4:5
ranks_per_channel=2
read_buffer_size=32
static_backend_latency=10
static_frontend_latency=10
tBURST=5
tCCD_L=0
tCCD_L_WR=0
tCK=1
tCL=14
tCS=3
tRAS=35
tRCD=14
tREFI=7800
tRFC=260
tRP=14
tRRD=6
tRRD_L=0
tRTP=8
tRTW=3
tWR=15
tWTR=8
tXAW=30
tXP=6
tXPDLL=0
tXS=270
tXSDLL=0
write_buffer_size=64
write_high_thresh_perc=85
write_low_thresh_perc=50
port=system.ruby.dir_cntrl5.memory

[system.mem_ctrls06]
type=DRAMCtrl
IDD0=0.055
IDD02=0.0
IDD2N=0.032
IDD2N2=0.0
IDD2P0=0.0
IDD2P02=0.0
IDD2P1=0.032
IDD2P12=0.0
IDD3N=0.038
IDD3N2=0.0
IDD3P0=0.0
IDD3P02=0.0
IDD3P1=0.038
IDD3P12=0.0
IDD4R=0.157
IDD4R2=0.0
IDD4W=0.125
IDD4W2=0.0
IDD5=0.235
IDD52=0.0
IDD6=0.02
IDD62=0.0
VDD=1.5
VDD2=0.0
activation_limit=4
addr_mapping=RoRaBaCoCh
bank_groups_per_rank=0
banks_per_rank=8
burst_length=8
channels=16
clk_domain=system.clk_domain
conf_table_reported=true
default_p_state=UNDEFINED
device_bus_width=8
device_rowbuffer_size=1024
device_size=536870912
devices_per_rank=8
dll=true
eventq_index=0
in_addr_map=true
kvm_map=true
max_accesses_per_row=16
mem_sched_policy=frfcfs
min_writes_per_switch=16
null=false
p_state_clk_gate_bins=20
p_state_clk_gate_max=1000000000
p_state_clk_gate_min=1
page_policy=open_adaptive
power_model=
qos_masters=               
qos_policy=Null
qos_priorities=1
qos_priority_escalation=false
qos_q_policy=fifo
qos_syncro_scheduler=false
qos_turnaround_policy=Null
range=0:536870911:9:23:4:6
ranks_per_channel=2
read_buffer_size=32
static_backend_latency=10
static_frontend_latency=10
tBURST=5
tCCD_L=0
tCCD_L_WR=0
tCK=1
tCL=14
tCS=3
tRAS=35
tRCD=14
tREFI=7800
tRFC=260
tRP=14
tRRD=6
tRRD_L=0
tRTP=8
tRTW=3
tWR=15
tWTR=8
tXAW=30
tXP=6
tXPDLL=0
tXS=270
tXSDLL=0
write_buffer_size=64
write_high_thresh_perc=85
write_low_thresh_perc=50
port=system.ruby.dir_cntrl6.memory

[system.mem_ctrls07]
type=DRAMCtrl
IDD0=0.055
IDD02=0.0
IDD2N=0.032
IDD2N2=0.0
IDD2P0=0.0
IDD2P02=0.0
IDD2P1=0.032
IDD2P12=0.0
IDD3N=0.038
IDD3N2=0.0
IDD3P0=0.0
IDD3P02=0.0
IDD3P1=0.038
IDD3P12=0.0
IDD4R=0.157
IDD4R2=0.0
IDD4W=0.125
IDD4W2=0.0
IDD5=0.235
IDD52=0.0
IDD6=0.02
IDD62=0.0
VDD=1.5
VDD2=0.0
activation_limit=4
addr_mapping=RoRaBaCoCh
bank_groups_per_rank=0
banks_per_rank=8
burst_length=8
channels=16
clk_domain=system.clk_domain
conf_table_reported=true
default_p_state=UNDEFINED
device_bus_width=8
device_rowbuffer_size=1024
device_size=536870912
devices_per_rank=8
dll=true
eventq_index=0
in_addr_map=true
kvm_map=true
max_accesses_per_row=16
mem_sched_policy=frfcfs
min_writes_per_switch=16
null=false
p_state_clk_gate_bins=20
p_state_clk_gate_max=1000000000
p_state_clk_gate_min=1
page_policy=open_adaptive
power_model=
qos_masters=               
qos_policy=Null
qos_priorities=1
qos_priority_escalation=false
qos_q_policy=fifo
qos_syncro_scheduler=false
qos_turnaround_policy=Null
range=0:536870911:9:23:4:7
ranks_per_channel=2
read_buffer_size=32
static_backend_latency=10
static_frontend_latency=10
tBURST=5
tCCD_L=0
tCCD_L_WR=0
tCK=1
tCL=14
tCS=3
tRAS=35
tRCD=14
tREFI=7800
tRFC=260
tRP=14
tRRD=6
tRRD_L=0
tRTP=8
tRTW=3
tWR=15
tWTR=8
tXAW=30
tXP=6
tXPDLL=0
tXS=270
tXSDLL=0
write_buffer_size=64
write_high_thresh_perc=85
write_low_thresh_perc=50
port=system.ruby.dir_cntrl7.memory

[system.mem_ctrls08]
type=DRAMCtrl
IDD0=0.055
IDD02=0.0
IDD2N=0.032
IDD2N2=0.0
IDD2P0=0.0
IDD2P02=0.0
IDD2P1=0.032
IDD2P12=0.0
IDD3N=0.038
IDD3N2=0.0
IDD3P0=0.0
IDD3P02=0.0
IDD3P1=0.038
IDD3P12=0.0
IDD4R=0.157
IDD4R2=0.0
IDD4W=0.125
IDD4W2=0.0
IDD5=0.235
IDD52=0.0
IDD6=0.02
IDD62=0.0
VDD=1.5
VDD2=0.0
activation_limit=4
addr_mapping=RoRaBaCoCh
bank_groups_per_rank=0
banks_per_rank=8
burst_length=8
channels=16
clk_domain=system.clk_domain
conf_table_reported=true
default_p_state=UNDEFINED
device_bus_width=8
device_rowbuffer_size=1024
device_size=536870912
devices_per_rank=8
dll=true
eventq_index=0
in_addr_map=true
kvm_map=true
max_accesses_per_row=16
mem_sched_policy=frfcfs
min_writes_per_switch=16
null=false
p_state_clk_gate_bins=20
p_state_clk_gate_max=1000000000
p_state_clk_gate_min=1
page_policy=open_adaptive
power_model=
qos_masters=               
qos_policy=Null
qos_priorities=1
qos_priority_escalation=false
qos_q_policy=fifo
qos_syncro_scheduler=false
qos_turnaround_policy=Null
range=0:536870911:9:23:4:8
ranks_per_channel=2
read_buffer_size=32
static_backend_latency=10
static_frontend_latency=10
tBURST=5
tCCD_L=0
tCCD_L_WR=0
tCK=1
tCL=14
tCS=3
tRAS=35
tRCD=14
tREFI=7800
tRFC=260
tRP=14
tRRD=6
tRRD_L=0
tRTP=8
tRTW=3
tWR=15
tWTR=8
tXAW=30
tXP=6
tXPDLL=0
tXS=270
tXSDLL=0
write_buffer_size=64
write_high_thresh_perc=85
write_low_thresh_perc=50
port=system.ruby.dir_cntrl8.memory

[system.mem_ctrls09]
type=DRAMCtrl
IDD0=0.055
IDD02=0.0
IDD2N=0.032
IDD2N2=0.0
IDD2P0=0.0
IDD2P02=0.0
IDD2P1=0.032
IDD2P12=0.0
IDD3N=0.038
IDD3N2=0.0
IDD3P0=0.0
IDD3P02=0.0
IDD3P1=0.038
IDD3P12=0.0
IDD4R=0.157
IDD4R2=0.0
IDD4W=0.125
IDD4W2=0.0
IDD5=0.235
IDD52=0.0
IDD6=0.02
IDD62=0.0
VDD=1.5
VDD2=0.0
activation_limit=4
addr_mapping=RoRaBaCoCh
bank_groups_per_rank=0
banks_per_rank=8
burst_length=8
channels=16
clk_domain=system.clk_domain
conf_table_reported=true
default_p_state=UNDEFINED
device_bus_width=8
device_rowbuffer_size=1024
device_size=536870912
devices_per_rank=8
dll=true
eventq_index=0
in_addr_map=true
kvm_map=true
max_accesses_per_row=16
mem_sched_policy=frfcfs
min_writes_per_switch=16
null=false
p_state_clk_gate_bins=20
p_state_clk_gate_max=1000000000
p_state_clk_gate_min=1
page_policy=open_adaptive
power_model=
qos_masters=               
qos_policy=Null
qos_priorities=1
qos_priority_escalation=false
qos_q_policy=fifo
qos_syncro_scheduler=false
qos_turnaround_policy=Null
range=0:536870911:9:23:4:9
ranks_per_channel=2
read_buffer_size=32
static_backend_latency=10
static_frontend_latency=10
tBURST=5
tCCD_L=0
tCCD_L_WR=0
tCK=1
tCL=14
tCS=3
tRAS=35
tRCD=14
tREFI=7800
tRFC=260
tRP=14
tRRD=6
tRRD_L=0
tRTP=8
tRTW=3
tWR=15
tWTR=8
tXAW=30
tXP=6
tXPDLL=0
tXS=270
tXSDLL=0
write_buffer_size=64
write_high_thresh_perc=85
write_low_thresh_perc=50
port=system.ruby.dir_cntrl9.memory

[system.mem_ctrls10]
type=DRAMCtrl
IDD0=0.055
IDD02=0.0
IDD2N=0.032
IDD2N2=0.0
IDD2P0=0.0
IDD2P02=0.0
IDD2P1=0.032
IDD2P12=0.0
IDD3N=0.038
IDD3N2=0.0
IDD3P0=0.0
IDD3P02=0.0
IDD3P1=0.038
IDD3P12=0.0
IDD4R=0.157
IDD4R2=0.0
IDD4W=0.125
IDD4W2=0.0
IDD5=0.235
IDD52=0.0
IDD6=0.02
IDD62=0.0
VDD=1.5
VDD2=0.0
activation_limit=4
addr_mapping=RoRaBaCoCh
bank_groups_per_rank=0
banks_per_rank=8
burst_length=8
channels=16
clk_domain=system.clk_domain
conf_table_reported=true
default_p_state=UNDEFINED
device_bus_width=8
device_rowbuffer_size=1024
device_size=536870912
devices_per_rank=8
dll=true
eventq_index=0
in_addr_map=true
kvm_map=true
max_accesses_per_row=16
mem_sched_policy=frfcfs
min_writes_per_switch=16
null=false
p_state_clk_gate_bins=20
p_state_clk_gate_max=1000000000
p_state_clk_gate_min=1
page_policy=open_adaptive
power_model=
qos_masters=               
qos_policy=Null
qos_priorities=1
qos_priority_escalation=false
qos_q_policy=fifo
qos_syncro_scheduler=false
qos_turnaround_policy=Null
range=0:536870911:9:23:4:10
ranks_per_channel=2
read_buffer_size=32
static_backend_latency=10
static_frontend_latency=10
tBURST=5
tCCD_L=0
tCCD_L_WR=0
tCK=1
tCL=14
tCS=3
tRAS=35
tRCD=14
tREFI=7800
tRFC=260
tRP=14
tRRD=6
tRRD_L=0
tRTP=8
tRTW=3
tWR=15
tWTR=8
tXAW=30
tXP=6
tXPDLL=0
tXS=270
tXSDLL=0
write_buffer_size=64
write_high_thresh_perc=85
write_low_thresh_perc=50
port=system.ruby.dir_cntrl10.memory

[system.mem_ctrls11]
type=DRAMCtrl
IDD0=0.055
IDD02=0.0
IDD2N=0.032
IDD2N2=0.0
IDD2P0=0.0
IDD2P02=0.0
IDD2P1=0.032
IDD2P12=0.0
IDD3N=0.038
IDD3N2=0.0
IDD3P0=0.0
IDD3P02=0.0
IDD3P1=0.038
IDD3P12=0.0
IDD4R=0.157
IDD4R2=0.0
IDD4W=0.125
IDD4W2=0.0
IDD5=0.235
IDD52=0.0
IDD6=0.02
IDD62=0.0
VDD=1.5
VDD2=0.0
activation_limit=4
addr_mapping=RoRaBaCoCh
bank_groups_per_rank=0
banks_per_rank=8
burst_length=8
channels=16
clk_domain=system.clk_domain
conf_table_reported=true
default_p_state=UNDEFINED
device_bus_width=8
device_rowbuffer_size=1024
device_size=536870912
devices_per_rank=8
dll=true
eventq_index=0
in_addr_map=true
kvm_map=true
max_accesses_per_row=16
mem_sched_policy=frfcfs
min_writes_per_switch=16
null=false
p_state_clk_gate_bins=20
p_state_clk_gate_max=1000000000
p_state_clk_gate_min=1
page_policy=open_adaptive
power_model=
qos_masters=               
qos_policy=Null
qos_priorities=1
qos_priority_escalation=false
qos_q_policy=fifo
qos_syncro_scheduler=false
qos_turnaround_policy=Null
range=0:536870911:9:23:4:11
ranks_per_channel=2
read_buffer_size=32
static_backend_latency=10
static_frontend_latency=10
tBURST=5
tCCD_L=0
tCCD_L_WR=0
tCK=1
tCL=14
tCS=3
tRAS=35
tRCD=14
tREFI=7800
tRFC=260
tRP=14
tRRD=6
tRRD_L=0
tRTP=8
tRTW=3
tWR=15
tWTR=8
tXAW=30
tXP=6
tXPDLL=0
tXS=270
tXSDLL=0
write_buffer_size=64
write_high_thresh_perc=85
write_low_thresh_perc=50
port=system.ruby.dir_cntrl11.memory

[system.mem_ctrls12]
type=DRAMCtrl
IDD0=0.055
IDD02=0.0
IDD2N=0.032
IDD2N2=0.0
IDD2P0=0.0
IDD2P02=0.0
IDD2P1=0.032
IDD2P12=0.0
IDD3N=0.038
IDD3N2=0.0
IDD3P0=0.0
IDD3P02=0.0
IDD3P1=0.038
IDD3P12=0.0
IDD4R=0.157
IDD4R2=0.0
IDD4W=0.125
IDD4W2=0.0
IDD5=0.235
IDD52=0.0
IDD6=0.02
IDD62=0.0
VDD=1.5
VDD2=0.0
activation_limit=4
addr_mapping=RoRaBaCoCh
bank_groups_per_rank=0
banks_per_rank=8
burst_length=8
channels=16
clk_domain=system.clk_domain
conf_table_reported=true
default_p_state=UNDEFINED
device_bus_width=8
device_rowbuffer_size=1024
device_size=536870912
devices_per_rank=8
dll=true
eventq_index=0
in_addr_map=true
kvm_map=true
max_accesses_per_row=16
mem_sched_policy=frfcfs
min_writes_per_switch=16
null=false
p_state_clk_gate_bins=20
p_state_clk_gate_max=1000000000
p_state_clk_gate_min=1
page_policy=open_adaptive
power_model=
qos_masters=               
qos_policy=Null
qos_priorities=1
qos_priority_escalation=false
qos_q_policy=fifo
qos_syncro_scheduler=false
qos_turnaround_policy=Null
range=0:536870911:9:23:4:12
ranks_per_channel=2
read_buffer_size=32
static_backend_latency=10
static_frontend_latency=10
tBURST=5
tCCD_L=0
tCCD_L_WR=0
tCK=1
tCL=14
tCS=3
tRAS=35
tRCD=14
tREFI=7800
tRFC=260
tRP=14
tRRD=6
tRRD_L=0
tRTP=8
tRTW=3
tWR=15
tWTR=8
tXAW=30
tXP=6
tXPDLL=0
tXS=270
tXSDLL=0
write_buffer_size=64
write_high_thresh_perc=85
write_low_thresh_perc=50
port=system.ruby.dir_cntrl12.memory

[system.mem_ctrls13]
type=DRAMCtrl
IDD0=0.055
IDD02=0.0
IDD2N=0.032
IDD2N2=0.0
IDD2P0=0.0
IDD2P02=0.0
IDD2P1=0.032
IDD2P12=0.0
IDD3N=0.038
IDD3N2=0.0
IDD3P0=0.0
IDD3P02=0.0
IDD3P1=0.038
IDD3P12=0.0
IDD4R=0.157
IDD4R2=0.0
IDD4W=0.125
IDD4W2=0.0
IDD5=0.235
IDD52=0.0
IDD6=0.02
IDD62=0.0
VDD=1.5
VDD2=0.0
activation_limit=4
addr_mapping=RoRaBaCoCh
bank_groups_per_rank=0
banks_per_rank=8
burst_length=8
channels=16
clk_domain=system.clk_domain
conf_table_reported=true
default_p_state=UNDEFINED
device_bus_width=8
device_rowbuffer_size=1024
device_size=536870912
devices_per_rank=8
dll=true
eventq_index=0
in_addr_map=true
kvm_map=true
max_accesses_per_row=16
mem_sched_policy=frfcfs
min_writes_per_switch=16
null=false
p_state_clk_gate_bins=20
p_state_clk_gate_max=1000000000
p_state_clk_gate_min=1
page_policy=open_adaptive
power_model=
qos_masters=               
qos_policy=Null
qos_priorities=1
qos_priority_escalation=false
qos_q_policy=fifo
qos_syncro_scheduler=false
qos_turnaround_policy=Null
range=0:536870911:9:23:4:13
ranks_per_channel=2
read_buffer_size=32
static_backend_latency=10
static_frontend_latency=10
tBURST=5
tCCD_L=0
tCCD_L_WR=0
tCK=1
tCL=14
tCS=3
tRAS=35
tRCD=14
tREFI=7800
tRFC=260
tRP=14
tRRD=6
tRRD_L=0
tRTP=8
tRTW=3
tWR=15
tWTR=8
tXAW=30
tXP=6
tXPDLL=0
tXS=270
tXSDLL=0
write_buffer_size=64
write_high_thresh_perc=85
write_low_thresh_perc=50
port=system.ruby.dir_cntrl13.memory

[system.mem_ctrls14]
type=DRAMCtrl
IDD0=0.055
IDD02=0.0
IDD2N=0.032
IDD2N2=0.0
IDD2P0=0.0
IDD2P02=0.0
IDD2P1=0.032
IDD2P12=0.0
IDD3N=0.038
IDD3N2=0.0
IDD3P0=0.0
IDD3P02=0.0
IDD3P1=0.038
IDD3P12=0.0
IDD4R=0.157
IDD4R2=0.0
IDD4W=0.125
IDD4W2=0.0
IDD5=0.235
IDD52=0.0
IDD6=0.02
IDD62=0.0
VDD=1.5
VDD2=0.0
activation_limit=4
addr_mapping=RoRaBaCoCh